testData/tamu2000/pfcases_100_fullsys/texas2000_hr_5314_mod_23_pslf.raw
0  100.000 
THIS IS A SYNTHETIC POWER SYSTEM MODEL THAT DOES NOT REPRESE
DATA RESEARCH PROJECT AND CONTAINS NO CEII.
1001,  1,  0.000,  0.000,  0.000,  0.000,  1,  0.99043,  -66.4858,  'ODESSA 2',  115.00,  9
1002,  1,  0.000,  0.000,  0.000,  0.000,  1,  1.02717,  -56.7046,  'PRESIDIO',  115.00,  9
1003,  1,  0.000,  0.000,  0.000,  0.000,  1,  1.01708,  -61.2395,  'O DONNEL',  115.00,  9
1004,  2,  0.000,  0.000,  0.000,  0.000,  1,  1.02182,  -63.4619,  'O DONNEL',  230.00,  9
1005,  1,  0.000,  0.000,  0.000,  0.000,  1,  1.01301,  -53.5001,  'BIG SPRI',  115.00,  9
1006,  1,  -19.385,  4.940,  0.000,  0.000,  1,  1.00882,  -52.0510,  'BIG SPRI',  13.800,  9
1007,  1,  0.000,  -0.580,  0.000,  0.000,  1,  1.03000,  -55.9237,  'VAN HORN',  115.00,  9
1008,  1,  0.000,  0.000,  0.000,  0.000,  1,  1.01721,  -53.1338,  'IRAAN 2 ',  115.00,  9
1009,  2,  0.000,  0.000,  0.000,  0.000,  1,  1.00718,  -50.6339,  'IRAAN 2 ',  13.800,  9
1010,  1,  0.000,  4.728,  0.000,  0.000,  1,  1.03000,  -56.0879,  'PRESIDIO',  115.00,  9
1011,  1,  -1.453,  0.000,  0.000,  0.000,  1,  1.03018,  -55.9859,  'PRESIDIO',  22.000,  9
1012,  1,  0.026,  -9.373,  0.000,  0.000,  1,  0.99323,  -70.1011,  'SANDERSO',  115.00,  9
1013,  1,  0.000,  0.000,  0.000,  0.000,  1,  0.99435,  -51.0866,  'MONAHANS',  115.00,  9
1014,  1,  0.000,  0.000,  0.000,  0.000,  1,  1.00626,  -49.9838,  'GRANDFAL',  115.00,  9
1015,  1,  0.000,  0.000,  0.000,  0.000,  1,  1.03352,  -56.5283,  'MARFA 0 ',  115.00,  9
1016,  1,  0.000,  -31.390,  0.000,  0.000,  1,  1.02291,  -53.4023,  'GARDEN C',  115.00,  9
1017,  1,  0.000,  0.000,  0.000,  0.000,  1,  0.97709,  -62.2880,  'ODESSA 4',  115.00,  9
1018,  1,  0.000,  0.000,  0.000,  0.000,  1,  0.97882,  -62.0830,  'NOTREES ',  115.00,  9
1019,  1,  0.004,  -145.420,  0.000,  0.000,  1,  1.00850,  -65.9741,  'MIDLAND ',  115.00,  9
1020,  1,  0.001,  -80.472,  0.000,  0.000,  1,  1.02409,  -58.0432,  'BIG SPRI',  115.00,  9
1021,  2,  0.000,  0.000,  0.000,  0.000,  1,  1.00150,  -53.0648,  'BIG SPRI',  13.800,  9
1022,  1,  0.000,  0.000,  0.000,  0.000,  1,  1.01947,  -60.6899,  'O DONNEL',  115.00,  9
1023,  2,  0.000,  0.000,  0.000,  0.000,  1,  1.01000,  -54.0141,  'O DONNEL',  13.800,  9
1024,  1,  0.000,  0.000,  0.000,  0.000,  1,  0.97893,  -61.9012,  'ODESSA 6',  115.00,  9
1025,  1,  0.000,  0.000,  0.000,  0.000,  1,  1.01851,  -55.7056,  'BIG SPRI',  115.00,  9
1026,  2,  0.000,  0.000,  0.000,  0.000,  1,  1.00008,  -50.4357,  'BIG SPRI',  13.800,  9
1027,  1,  -0.004,  -76.889,  0.000,  0.000,  1,  1.01251,  -64.7371,  'MIDLAND ',  115.00,  9
1028,  1,  0.000,  0.000,  0.000,  0.000,  1,  1.02392,  -62.0688,  'COAHOMA ',  115.00,  9
1029,  1,  0.000,  -40.536,  0.000,  0.000,  1,  1.00668,  -63.3206,  'MIDLAND ',  115.00,  9
1030,  1,  0.000,  0.000,  0.000,  0.000,  1,  1.02284,  -54.1304,  'ALPINE 0',  115.00,  9
1031,  1,  0.000,  0.000,  0.000,  0.000,  1,  1.01186,  -54.1338,  'FORT DAV',  115.00,  9
1032,  1,  0.000,  0.000,  0.000,  0.000,  1,  0.99830,  -54.6320,  'MCCAMEY ',  115.00,  9
1033,  2,  0.071,  -5.947,  0.000,  0.000,  1,  1.00000,  -58.1101,  'MCCAMEY ',  230.00,  9
1034,  1,  0.000,  0.000,  0.000,  0.000,  1,  1.01172,  -51.1752,  'BIG SPRI',  115.00,  9
1035,  2,  0.000,  0.000,  0.000,  0.000,  1,  1.00201,  -48.7004,  'BIG SPRI',  13.800,  9
1036,  1,  0.000,  0.000,  0.000,  0.000,  1,  0.99656,  -54.4036,  'CRANE 0 ',  115.00,  9
1037,  1,  0.000,  0.000,  0.000,  0.000,  1,  0.97584,  -64.7681,  'ODESSA 5',  115.00,  9
1038,  1,  0.000,  0.000,  0.000,  0.000,  1,  1.01692,  -50.6646,  'FORT STO',  115.00,  9
1039,  2,  0.000,  0.000,  0.000,  0.000,  1,  1.00000,  -46.6057,  'FORT STO',  22.000,  9
1040,  1,  0.000,  0.000,  0.000,  0.000,  1,  0.98391,  -64.1611,  'ANDREWS ',  115.00,  9
1041,  1,  0.000,  0.000,  0.000,  0.000,  1,  1.01064,  -50.5824,  'FORSAN 0',  115.00,  9
1042,  2,  0.000,  0.000,  0.000,  0.000,  1,  1.00000,  -44.7613,  'FORSAN 1',  13.800,  9
1043,  2,  0.000,  0.000,  0.000,  0.000,  1,  1.00000,  -48.1482,  'FORSAN 2',  13.800,  9
1044,  1,  0.000,  0.000,  0.000,  0.000,  1,  1.01534,  -69.1183,  'BIG LAKE',  115.00,  9
1045,  1,  0.000,  0.000,  0.000,  0.000,  1,  0.98822,  -67.2358,  'MIDLAND ',  115.00,  9
1046,  1,  0.001,  -12.708,  0.000,  0.000,  1,  1.02906,  -66.9949,  'OZONA 0 ',  115.00,  9
1047,  1,  0.000,  0.000,  0.000,  0.000,  1,  0.99303,  -48.4563,  'MONAHANS',  115.00,  9
1048,  2,  0.000,  0.000,  0.000,  0.000,  1,  1.00000,  -39.5693,  'MONAHANS',  18.000,  9
1049,  2,  0.000,  0.000,  0.000,  0.000,  1,  1.00000,  -32.3812,  'MONAHANS',  18.000,  9
1050,  2,  0.000,  0.000,  0.000,  0.000,  1,  0.99303,  -48.4563,  'MONAHANS',  18.000,  9
1051,  2,  0.000,  0.000,  0.000,  0.000,  1,  0.99303,  -48.4563,  'MONAHANS',  18.000,  9
1052,  2,  0.000,  0.000,  0.000,  0.000,  1,  0.99303,  -48.4563,  'MONAHANS',  18.000,  9
1053,  2,  0.000,  0.000,  0.000,  0.000,  1,  1.00330,  -54.0355,  'MONAHANS',  230.00,  9
1054,  1,  0.000,  0.000,  0.000,  0.000,  1,  1.01911,  -60.1277,  'STANTON ',  115.00,  9
1055,  1,  0.000,  0.000,  0.000,  0.000,  1,  1.01288,  -61.5056,  'ODONNELL',  115.00,  9
1056,  1,  -0.001,  -76.058,  0.000,  0.000,  1,  1.03000,  -58.4870,  'LENORAH ',  115.00,  9
1057,  2,  0.000,  0.000,  0.000,  0.000,  1,  1.00337,  -51.8662,  'LENORAH ',  18.000,  9
1058,  1,  0.000,  0.000,  0.000,  0.000,  1,  1.02270,  -56.0991,  'IRAAN 3 ',  115.00,  9
1059,  2,  0.000,  0.000,  0.000,  0.000,  1,  1.02270,  -56.0991,  'IRAAN 3 ',  22.000,  9
1060,  2,  0.000,  0.000,  0.000,  0.000,  1,  1.02270,  -56.0991,  'IRAAN 3 ',  22.000,  9
1061,  1,  0.000,  0.000,  0.000,  0.000,  1,  1.01661,  -54.1388,  'BIG SPRI',  115.00,  9
1062,  1,  -0.612,  0.000,  0.000,  0.000,  1,  1.01668,  -54.0947,  'BIG SPRI',  13.800,  9
1063,  2,  0.000,  0.000,  0.000,  0.000,  1,  1.01729,  -48.7166,  'BIG SPRI',  13.800,  9
1064,  1,  0.000,  0.000,  0.000,  0.000,  1,  0.98319,  -67.5759,  'ODESSA 3',  115.00,  9
1065,  1,  0.000,  0.000,  0.000,  0.000,  1,  1.01179,  -50.8733,  'BIG SPRI',  115.00,  9
1066,  2,  0.000,  0.000,  0.000,  0.000,  1,  1.00000,  -45.2231,  'BIG SPRI',  13.800,  9
1067,  1,  0.000,  0.000,  0.000,  0.000,  1,  1.00993,  -51.6155,  'BIG SPRI',  115.00,  9
1068,  1,  0.000,  0.000,  0.000,  0.000,  1,  0.99094,  -55.9383,  'MIDLAND ',  115.00,  9
1069,  1,  0.000,  0.000,  0.000,  0.000,  1,  1.02271,  -53.6159,  'IRAAN 1 ',  115.00,  9
1070,  2,  0.000,  0.000,  0.000,  0.000,  1,  1.04000,  -50.2332,  'IRAAN 1 ',  13.800,  9
1071,  1,  0.000,  0.000,  0.000,  0.000,  1,  0.99770,  -65.4823,  'ODESSA 1',  115.00,  9
1072,  3,  0.000,  0.000,  0.000,  0.000,  1,  1.01000,  -63.9156,  'ODESSA 1',  18.000,  9
1073,  2,  0.000,  0.000,  0.000,  0.000,  1,  1.01000,  -57.2639,  'ODESSA 1',  18.000,  9
1074,  2,  0.000,  0.000,  0.000,  0.000,  1,  1.01000,  -57.6076,  'ODESSA 1',  18.000,  9
1075,  2,  0.000,  0.000,  0.000,  0.000,  1,  1.01000,  -59.1847,  'ODESSA 1',  18.000,  9
1076,  2,  0.000,  0.000,  0.000,  0.000,  1,  1.01000,  -62.3725,  'ODESSA 1',  18.000,  9
1077,  2,  0.000,  0.000,  0.000,  0.000,  1,  1.01000,  -57.8693,  'ODESSA 1',  18.000,  9
1078,  2,  0.000,  0.000,  0.000,  0.000,  1,  0.99770,  -65.4823,  'ODESSA 1',  18.000,  9
1079,  2,  0.000,  0.000,  0.000,  0.000,  1,  1.03243,  -79.5122,  'ODESSA 1',  500.00,  9
1080,  2,  0.000,  0.000,  0.000,  0.000,  1,  0.99770,  -65.4823,  'ODESSA 1',  18.000,  9
1081,  2,  0.003,  -32.487,  0.000,  0.000,  1,  1.01000,  -57.7160,  'ODESSA 1',  230.00,  9
1082,  2,  0.000,  0.000,  0.000,  0.000,  1,  1.01773,  -50.0678,  'FORT STO',  115.00,  9
1083,  1,  0.000,  -27.270,  0.000,  0.000,  1,  1.02119,  -51.5264,  'FORT STO',  115.00,  9
1084,  2,  0.000,  0.000,  0.000,  0.000,  1,  1.02743,  -59.7877,  'BIG SPRI',  115.00,  9
1085,  1,  0.000,  0.000,  0.000,  0.000,  1,  0.99029,  -52.8070,  'KERMIT 0',  115.00,  9
1086,  1,  0.000,  -29.843,  0.000,  0.000,  1,  0.99737,  -54.3204,  'PECOS 0 ',  115.00,  9
1087,  1,  -0.006,  -31.434,  0.000,  0.000,  1,  1.02997,  -60.9615,  'SHEFFIEL',  115.00,  9
1088,  2,  0.000,  0.000,  0.000,  0.000,  1,  1.00000,  -53.3454,  'MCCAMEY ',  115.00,  9
1089,  1,  0.000,  0.000,  0.000,  0.000,  1,  1.00142,  -62.1204,  'LAMESA 0',  115.00,  9
1090,  2,  0.000,  0.000,  0.000,  0.000,  1,  0.99909,  -59.6600,  'GOLDSMIT',  115.00,  9
1091,  1,  0.000,  0.000,  0.000,  0.000,  1,  1.03285,  -73.6325,  'RALLS 2 ',  161.00,  9
2001,  1,  0.000,  0.000,  0.000,  0.000,  2,  1.01034,  -93.2408,  'PARIS 3 ',  161.00,  11
2002,  1,  0.000,  0.000,  0.000,  0.000,  2,  1.02427,  -91.0336,  'SAVOY 0 ',  500.00,  11
2003,  1,  0.000,  0.000,  0.000,  0.000,  2,  1.02465,  -92.9638,  'SAVOY 1 ',  161.00,  11
2004,  2,  0.000,  0.000,  0.000,  0.000,  2,  1.02000,  -90.0849,  'SAVOY 2 ',  13.800,  11
2005,  2,  0.000,  0.000,  0.000,  0.000,  2,  1.02000,  -89.9239,  'SAVOY 3 ',  13.800,  11
2006,  2,  0.000,  0.000,  0.000,  0.000,  2,  1.02000,  -89.3033,  'SAVOY 4 ',  13.800,  11
2007,  1,  0.000,  0.000,  0.000,  0.000,  2,  1.01532,  -92.6761,  'HONEY GR',  161.00,  11
2008,  1,  0.000,  0.000,  0.000,  0.000,  2,  1.01264,  -75.6890,  'MEMPHIS ',  161.00,  10
2009,  1,  -0.015,  -117.626,  0.000,  0.000,  2,  1.03000,  -86.3320,  'IOWA PAR',  161.00,  11
2010,  1,  -0.001,  -24.690,  0.000,  0.000,  2,  1.03000,  -79.1738,  'VERNON 2',  161.00,  10
2011,  1,  0.000,  0.000,  0.000,  0.000,  2,  1.04825,  -73.3013,  'PANHANDL',  500.00,  10
2012,  1,  0.000,  0.000,  0.000,  0.000,  2,  1.03392,  -71.4812,  'PANHANDL',  161.00,  10
2013,  2,  0.000,  0.000,  0.000,  0.000,  2,  1.04026,  -71.8908,  'PANHANDL',  18.000,  10
2014,  1,  0.000,  0.000,  0.000,  0.000,  2,  1.01033,  -76.5571,  'CHILDRES',  161.00,  10
2015,  1,  0.000,  0.000,  0.000,  0.000,  2,  1.01822,  -96.1772,  'FORESTBU',  161.00,  11
2016,  1,  0.000,  0.000,  0.000,  0.000,  2,  1.02533,  -96.6809,  'SHERMAN ',  161.00,  11
2017,  1,  0.001,  216.090,  0.000,  0.000,  2,  1.03945,  -72.4599,  'PANHANDL',  500.00,  10
2018,  1,  0.000,  0.000,  0.000,  0.000,  2,  1.03586,  -71.6816,  'PANHANDL',  161.00,  10
2019,  2,  0.000,  0.000,  0.000,  0.000,  2,  1.04000,  -71.4881,  'PANHANDL',  20.000,  10
2020,  1,  0.000,  0.000,  0.000,  0.000,  2,  1.00543,  -85.9511,  'WICHITA ',  161.00,  11
2021,  1,  0.000,  0.000,  0.000,  0.000,  2,  1.02481,  -90.2224,  'PARIS 2 ',  500.00,  11
2022,  1,  0.000,  0.000,  0.000,  0.000,  2,  1.01711,  -92.1829,  'PARIS 2 ',  161.00,  11
2023,  2,  0.000,  0.000,  0.000,  0.000,  2,  1.02481,  -90.2224,  'PARIS 2 ',  13.800,  11
2024,  2,  0.000,  0.000,  0.000,  0.000,  2,  1.02049,  -88.9343,  'PARIS 2 ',  13.800,  11
2025,  1,  0.000,  0.000,  0.000,  0.000,  2,  1.00342,  -85.4940,  'WICHITA ',  161.00,  11
2026,  1,  0.000,  0.000,  0.000,  0.000,  2,  1.03481,  -72.7719,  'WHEELER ',  161.00,  10
2027,  1,  0.000,  0.000,  0.000,  0.000,  2,  1.00808,  -93.8101,  'DEPORT 0',  161.00,  11
2028,  1,  0.000,  0.000,  0.000,  0.000,  2,  1.00842,  -87.4696,  'WICHITA ',  161.00,  11
2029,  1,  0.000,  0.000,  0.000,  0.000,  2,  1.01932,  -75.7858,  'SILVERTO',  161.00,  10
2030,  1,  0.000,  0.000,  0.000,  0.000,  2,  0.99978,  -95.8467,  'BONHAM 0',  161.00,  11
2031,  1,  0.000,  0.000,  0.000,  0.000,  2,  1.03091,  -73.2176,  'MATADOR ',  161.00,  10
2032,  1,  0.000,  0.000,  0.000,  0.000,  2,  1.01710,  -92.2520,  'ARTHUR C',  161.00,  11
2033,  1,  0.000,  0.000,  0.000,  0.000,  2,  0.98486,  -98.3862,  'LEONARD ',  161.00,  11
2034,  1,  0.000,  0.000,  0.000,  0.000,  2,  1.02732,  -96.2812,  'GORDONVI',  161.00,  11
2035,  1,  0.000,  0.000,  0.000,  0.000,  2,  1.02618,  -74.3980,  'KNOX CIT',  161.00,  10
2036,  1,  0.000,  0.000,  0.000,  0.000,  2,  1.00747,  -85.8173,  'WICHITA ',  161.00,  11
2037,  1,  0.000,  0.000,  0.000,  0.000,  2,  1.02753,  -96.0950,  'LINDSAY ',  161.00,  11
2038,  1,  0.000,  0.000,  0.000,  0.000,  2,  1.01949,  -93.8423,  'ECTOR 0 ',  161.00,  11
2039,  1,  0.000,  0.000,  0.000,  0.000,  2,  1.00063,  -95.3636,  'SUNSET 0',  161.00,  11
2040,  1,  0.000,  0.000,  0.000,  0.000,  2,  1.01526,  -92.7748,  'CLARKSVI',  161.00,  11
2041,  1,  0.000,  0.000,  0.000,  0.000,  2,  1.03367,  -69.9453,  'PANHANDL',  161.00,  10
2042,  2,  0.000,  0.000,  0.000,  0.000,  2,  1.02527,  -68.0705,  'PANHANDL',  18.000,  10
2043,  1,  0.000,  0.000,  0.000,  0.000,  2,  1.02648,  -96.4606,  'SADLER 0',  161.00,  11
2044,  1,  0.000,  0.000,  0.000,  0.000,  2,  1.02634,  -95.2962,  'WHITESBO',  161.00,  11
2045,  1,  0.000,  0.000,  0.000,  0.000,  2,  1.00552,  -86.3177,  'SHEPPARD',  161.00,  11
2046,  1,  0.000,  0.000,  0.000,  0.000,  2,  1.02832,  -96.0596,  'POTTSBOR',  161.00,  11
2047,  1,  0.000,  0.000,  0.000,  0.000,  2,  1.02533,  -93.5079,  'BELLS 0 ',  161.00,  11
2048,  1,  0.000,  0.000,  0.000,  0.000,  2,  1.03326,  -74.7197,  'CROSBYTO',  161.00,  10
2049,  1,  0.000,  0.000,  0.000,  0.000,  2,  1.02545,  -82.8350,  'ELECTRA ',  161.00,  10
2050,  1,  0.000,  0.000,  0.000,  0.000,  2,  0.98060,  -97.8031,  'PATTONVI',  161.00,  11
2051,  1,  0.000,  0.000,  0.000,  0.000,  2,  1.00695,  -91.5277,  'HENRIETT',  161.00,  11
2052,  1,  0.000,  0.000,  0.000,  0.000,  2,  1.01614,  -74.4390,  'PANHANDL',  161.00,  10
2053,  1,  0.000,  0.000,  0.000,  0.000,  2,  1.00013,  -93.5735,  'BOWIE 0 ',  161.00,  11
2054,  1,  0.000,  0.000,  0.000,  0.000,  2,  1.00570,  -84.6907,  'WICHITA ',  500.00,  11
2055,  1,  0.000,  0.000,  0.000,  0.000,  2,  1.00601,  -85.3328,  'WICHITA ',  161.00,  11
2056,  2,  0.000,  0.000,  0.000,  0.000,  2,  1.00570,  -84.6907,  'WICHITA ',  18.000,  11
2057,  3,  0.000,  0.000,  0.000,  0.000,  2,  0.99000,  -84.2754,  'WICHITA ',  18.000,  11
2058,  1,  0.000,  0.000,  0.000,  0.000,  2,  1.03367,  -69.7004,  'WHITE DE',  161.00,  10
2059,  2,  0.000,  0.000,  0.000,  0.000,  2,  1.02368,  -67.3339,  'WHITE DE',  13.800,  10
2060,  1,  0.000,  0.000,  0.000,  0.000,  2,  0.98664,  -96.3834,  'ROXTON 0',  161.00,  11
2061,  1,  0.000,  0.000,  0.000,  0.000,  2,  1.02566,  -79.9085,  'VERNON 1',  161.00,  10
2062,  2,  0.000,  0.000,  0.000,  0.000,  2,  1.02000,  -77.9774,  'VERNON 1',  18.000,  10
2063,  1,  -0.019,  -42.198,  0.000,  0.000,  2,  1.03000,  -95.7080,  'DENISON ',  161.00,  11
2064,  1,  0.000,  0.000,  0.000,  0.000,  2,  1.00192,  -94.1699,  'SUMNER 0',  161.00,  11
2065,  1,  -0.015,  -70.480,  0.000,  0.000,  2,  1.03000,  -96.6390,  'GAINESVI',  161.00,  11
2066,  1,  0.000,  0.000,  0.000,  0.000,  2,  1.02530,  -71.8662,  'ASPERMON',  161.00,  10
2067,  1,  0.000,  0.000,  0.000,  0.000,  2,  1.00223,  -85.4607,  'WICHITA ',  161.00,  11
2068,  1,  0.000,  0.000,  0.000,  0.000,  2,  1.00536,  -84.2776,  'WINDTHOR',  161.00,  11
2069,  1,  -0.064,  -55.463,  0.000,  0.000,  2,  1.03000,  -96.2993,  'HOWE 0  ',  161.00,  11
2070,  1,  0.000,  0.000,  0.000,  0.000,  2,  1.00692,  -83.9459,  'ARCHER 2',  161.00,  11
2071,  2,  0.000,  0.000,  0.000,  0.000,  2,  1.00000,  -82.4975,  'ARCHER 2',  18.000,  11
2072,  1,  0.000,  0.000,  0.000,  0.000,  2,  1.02783,  -94.9771,  'COLLINSV',  161.00,  11
2073,  1,  0.000,  0.000,  0.000,  0.000,  2,  1.02598,  -69.6420,  'JAYTON 0',  161.00,  10
2074,  1,  0.000,  0.000,  0.000,  0.000,  2,  1.01755,  -68.3634,  'JAYTON 1',  115.00,  10
2075,  1,  0.000,  0.000,  0.000,  0.000,  2,  1.01755,  -68.3634,  'JAYTON 2',  115.00,  10
2076,  1,  -16.951,  -6.390,  0.000,  0.000,  2,  1.03106,  -68.9756,  'JAYTON 3',  24.000,  10
2077,  1,  0.000,  0.000,  0.000,  0.000,  2,  1.02684,  -95.1612,  'MUENSTER',  161.00,  11
2078,  2,  0.000,  0.000,  0.000,  0.000,  2,  1.02000,  -93.8520,  'MUENSTER',  13.800,  11
2079,  1,  0.000,  0.000,  0.000,  0.000,  2,  1.03234,  -77.4790,  'PADUCAH ',  161.00,  10
2080,  1,  0.000,  0.000,  0.000,  0.000,  2,  1.00932,  -93.4648,  'NOCONA 0',  161.00,  11
2081,  1,  0.000,  0.000,  0.000,  0.000,  2,  1.01043,  -95.4249,  'DODD CIT',  161.00,  11
2082,  1,  0.000,  0.000,  0.000,  0.000,  2,  1.01091,  -86.1570,  'WICHITA ',  161.00,  11
2083,  2,  0.000,  0.000,  0.000,  0.000,  2,  1.01091,  -86.1570,  'WICHITA ',  20.000,  11
2084,  2,  0.000,  0.000,  0.000,  0.000,  2,  1.01091,  -86.1570,  'WICHITA ',  20.000,  11
2085,  2,  0.000,  0.000,  0.000,  0.000,  2,  1.01091,  -86.1570,  'WICHITA ',  20.000,  11
2086,  1,  0.000,  0.000,  0.000,  0.000,  2,  1.00415,  -94.6544,  'MONTAGUE',  161.00,  11
2087,  1,  0.000,  0.000,  0.000,  0.000,  2,  1.02792,  -71.5652,  'SPUR 0  ',  161.00,  10
2088,  1,  0.000,  0.000,  0.000,  0.000,  2,  1.00585,  -84.0972,  'ARCHER 1',  161.00,  11
2089,  1,  -19.967,  4.891,  0.000,  0.000,  2,  1.00000,  -82.6797,  'ARCHER 1',  24.000,  11
2090,  1,  0.000,  0.000,  0.000,  0.000,  2,  1.00301,  -94.7566,  'ANNONA 0',  161.00,  11
2091,  1,  0.000,  0.000,  0.000,  0.000,  2,  1.02643,  -77.3251,  'SEYMOUR ',  161.00,  10
2092,  1,  0.000,  0.000,  0.000,  0.000,  2,  1.02687,  -94.6387,  'DENISON ',  161.00,  11
2093,  1,  0.000,  0.000,  0.000,  0.000,  2,  1.03491,  -70.8353,  'PANHANDL',  161.00,  10
2094,  1,  -6.130,  1.440,  0.000,  0.000,  2,  1.03355,  -70.4945,  'PANHANDL',  13.800,  10
2095,  2,  0.000,  0.000,  0.000,  0.000,  2,  1.02966,  -69.4893,  'PANHANDL',  13.800,  10
2096,  1,  -0.001,  117.940,  0.000,  0.000,  2,  1.03000,  -69.3849,  'RALLS 1 ',  500.00,  10
2097,  1,  0.000,  0.000,  0.000,  0.000,  2,  1.02980,  -69.1053,  'RALLS 1 ',  230.00,  10
2098,  1,  0.000,  0.000,  0.000,  0.000,  2,  1.03434,  -72.9195,  'RALLS 1 ',  161.00,  10
2099,  1,  -7.056,  1.440,  0.000,  0.000,  2,  1.02953,  -69.2521,  'RALLS 1 ',  18.000,  10
2100,  2,  0.000,  0.000,  0.000,  0.000,  2,  1.02087,  -66.9331,  'RALLS 1 ',  18.000,  10
2101,  1,  0.000,  0.000,  0.000,  0.000,  2,  1.02460,  -91.6460,  'SHERMAN ',  500.00,  11
2102,  1,  0.000,  0.000,  0.000,  0.000,  2,  1.02598,  -92.8163,  'SHERMAN ',  161.00,  11
2103,  2,  0.000,  0.000,  0.000,  0.000,  2,  1.02105,  -91.0922,  'SHERMAN ',  20.000,  11
2104,  2,  0.000,  0.000,  0.000,  0.000,  2,  1.01991,  -90.9202,  'SHERMAN ',  20.000,  11
2105,  2,  0.000,  0.000,  0.000,  0.000,  2,  1.01726,  -90.4943,  'SHERMAN ',  20.000,  11
2106,  1,  0.000,  0.000,  0.000,  0.000,  2,  0.99323,  -97.6800,  'WHITEWRI',  161.00,  11
2107,  1,  0.000,  0.000,  0.000,  0.000,  2,  1.02335,  -93.3573,  'SHERMAN ',  161.00,  11
2108,  1,  0.000,  0.000,  0.000,  0.000,  2,  1.01533,  -83.7755,  'ROCHESTE',  161.00,  10
2109,  1,  0.000,  0.000,  0.000,  0.000,  2,  1.01855,  -87.0835,  'BURKBURN',  161.00,  11
...
 0 /End of Bus data, Begin Generator data
1004,  '1',  119.224,  -30.380,  44.940,  -30.380,  1.01000,  0,  253.200,  0.00000,  1.00000,  0.00000,  0.00000,  1.00000,  1,  100.0,  211.000,  63.300
1009,  '1',  46.612,  -11.880,  17.570,  -11.880,  1.00000,  0,  99.000,  0.00000,  1.00000,  0.00000,  0.00000,  1.00000,  1,  100.0,  82.500,  24.750
1021,  '1',  112.730,  -28.730,  42.490,  -28.730,  1.00000,  0,  239.400,  0.00000,  1.00000,  0.00000,  0.00000,  1.00000,  1,  100.0,  199.500,  59.850
1023,  '1',  101.708,  -6.838,  38.340,  -25.920,  1.01000,  0,  216.000,  0.00000,  1.00000,  0.00000,  0.00000,  1.00000,  1,  100.0,  180.000,  54.000
1026,  '1',  70.178,  -17.880,  26.450,  -17.880,  1.00000,  0,  149.040,  0.00000,  1.00000,  0.00000,  0.00000,  1.00000,  1,  100.0,  124.200,  37.260
1033,  '1',  157.082,  6.042,  59.210,  -40.030,  1.00000,  0,  333.600,  0.00000,  1.00000,  0.00000,  0.00000,  1.00000,  1,  100.0,  278.000,  83.400
1035,  '1',  50.854,  -12.960,  19.170,  -12.960,  1.00000,  0,  108.000,  0.00000,  1.00000,  0.00000,  0.00000,  1.00000,  1,  100.0,  90.000,  27.000
1039,  '1',  83.348,  -18.680,  31.420,  -21.240,  1.00000,  0,  177.000,  0.00000,  1.00000,  0.00000,  0.00000,  1.00000,  1,  100.0,  147.500,  44.250
1042,  '1',  91.839,  -8.342,  25.960,  -17.550,  1.00000,  0,  146.280,  0.00000,  1.00000,  0.00000,  0.00000,  1.00000,  1,  100.0,  121.900,  36.570
1043,  '1',  33.225,  -8.351,  12.520,  -8.470,  1.00000,  0,  70.560,  0.00000,  1.00000,  0.00000,  0.00000,  1.00000,  1,  100.0,  58.800,  17.640
1048,  '1',  234.140,  16.804,  165.530,  -36.100,  1.00000,  0,  390.240,  0.00000,  0.10170,  0.00000,  0.00000,  1.00000,  1,  100.0,  325.200,  97.560
1049,  '1',  234.140,  33.385,  165.530,  -36.100,  1.00000,  0,  390.240,  0.00000,  0.13490,  0.00000,  0.00000,  1.00000,  1,  100.0,  325.200,  97.560
1050,  '1',  0.000,  -6.604,  45.500,  -9.920,  1.00000,  0,  107.280,  0.00000,  0.27770,  0.00000,  0.00000,  1.00000,  0,  100.0,  89.400,  26.820
1051,  '1',  0.000,  -4.791,  45.500,  -9.920,  1.00000,  0,  107.280,  0.00000,  0.31740,  0.00000,  0.00000,  1.00000,  0,  100.0,  89.400,  26.820
1052,  '1',  0.000,  -9.920,  45.500,  -9.920,  1.00000,  0,  107.280,  0.00000,  0.27810,  0.00000,  0.00000,  1.00000,  0,  100.0,  89.400,  26.820
1053,  '1',  103.700,  -19.850,  91.010,  -19.850,  1.00000,  0,  214.560,  0.00000,  0.16870,  0.00000,  0.00000,  1.00000,  1,  100.0,  178.800,  53.640
1057,  '1',  90.407,  -17.280,  25.560,  -17.280,  1.00000,  0,  144.000,  0.00000,  1.00000,  0.00000,  0.00000,  1.00000,  1,  100.0,  120.000,  36.000
1059,  '1',  0.000,  0.000,  2.850,  -0.620,  1.04000,  0,  6.720,  0.00000,  0.22770,  0.00000,  0.00000,  1.00000,  0,  100.0,  5.600,  1.680
1060,  '1',  0.000,  0.000,  1.020,  -0.220,  1.04000,  0,  2.400,  0.00000,  0.16300,  0.00000,  0.00000,  1.00000,  0,  100.0,  2.000,  0.600
1063,  '1',  93.884,  0.000,  0.000,  0.000,  1.01000,  0,  276.000,  0.00000,  1.00000,  0.00000,  0.00000,  1.00000,  1,  100.0,  230.000,  69.000
1066,  '1',  80.523,  -8.904,  30.350,  -20.520,  1.00000,  0,  171.000,  0.00000,  1.00000,  0.00000,  0.00000,  1.00000,  1,  100.0,  142.500,  42.750
1070,  '1',  90.693,  24.486,  34.190,  -23.110,  1.04000,  0,  192.600,  0.00000,  1.00000,  0.00000,  0.00000,  1.00000,  1,  100.0,  160.500,  48.150
1072,  '1',  33.019,  12.932,  97.800,  -21.330,  1.01000,  0,  230.560,  0.00000,  0.30820,  0.00000,  0.00000,  1.00000,  1,  100.0,  192.130,  57.640
1073,  '1',  111.440,  6.376,  97.800,  -21.330,  1.01000,  0,  230.560,  0.00000,  0.19480,  0.00000,  0.00000,  1.00000,  1,  100.0,  192.130,  57.640
1074,  '1',  111.440,  12.465,  97.800,  -21.330,  1.01000,  0,  230.560,  0.00000,  0.20960,  0.00000,  0.00000,  1.00000,  1,  100.0,  192.130,  57.640
1075,  '1',  111.440,  14.400,  97.800,  -21.330,  1.01000,  0,  230.560,  0.00000,  0.12370,  0.00000,  0.00000,  1.00000,  1,  100.0,  192.130,  57.640
1076,  '1',  111.440,  24.996,  97.800,  -21.330,  1.01000,  0,  230.560,  0.00000,  0.10660,  0.00000,  0.00000,  1.00000,  1,  100.0,  192.130,  57.640
1077,  '1',  111.440,  11.760,  97.800,  -21.330,  1.01000,  0,  230.560,  0.00000,  0.15380,  0.00000,  0.00000,  1.00000,  1,  100.0,  192.130,  57.640
1078,  '1',  0.000,  16.268,  48.610,  -10.600,  1.01000,  0,  114.600,  0.00000,  0.28520,  0.00000,  0.00000,  1.00000,  0,  100.0,  95.500,  28.650
1079,  '1',  0.000,  -10.600,  48.610,  -10.600,  1.01000,  0,  114.600,  0.00000,  0.17260,  0.00000,  0.00000,  1.00000,  0,  100.0,  95.500,  28.650
1080,  '1',  0.000,  13.126,  48.610,  -10.600,  1.01000,  0,  114.600,  0.00000,  0.15430,  0.00000,  0.00000,  1.00000,  0,  100.0,  95.500,  28.650
1081,  '1',  206.280,  32.480,  145.830,  -31.800,  1.01000,  0,  343.800,  0.00000,  0.14960,  0.00000,  0.00000,  1.00000,  1,  100.0,  286.500,  85.950
1082,  '1',  84.757,  -21.600,  31.950,  -21.600,  1.00000,  0,  180.000,  0.00000,  1.00000,  0.00000,  0.00000,  1.00000,  1,  100.0,  150.000,  45.000
1084,  '1',  65.259,  24.600,  24.600,  -16.630,  1.04000,  0,  138.600,  0.00000,  1.00000,  0.00000,  0.00000,  1.00000,  1,  100.0,  115.500,  34.650
1088,  '1',  42.378,  -0.560,  15.970,  -10.800,  1.00000,  0,  90.000,  0.00000,  1.00000,  0.00000,  0.00000,  1.00000,  1,  100.0,  75.000,  22.500
1090,  '1',  40.682,  40.150,  40.150,  -27.140,  1.02000,  0,  226.200,  0.00000,  1.00000,  0.00000,  0.00000,  1.00000,  1,  100.0,  188.500,  56.550
2004,  '1',  117.540,  -30.529,  199.430,  -43.490,  1.02000,  0,  470.160,  0.00000,  0.10640,  0.00000,  0.00000,  1.00000,  1,  100.0,  391.800,  117.540
2005,  '1',  117.540,  -26.559,  199.430,  -43.490,  1.02000,  0,  470.160,  0.00000,  0.22750,  0.00000,  0.00000,  1.00000,  1,  100.0,  391.800,  117.540
2006,  '1',  117.540,  -16.077,  199.430,  -43.490,  1.02000,  0,  470.160,  0.00000,  0.20040,  0.00000,  0.00000,  1.00000,  1,  100.0,  391.800,  117.540
2013,  '1',  92.230,  -28.890,  42.730,  -28.890,  1.00000,  0,  240.720,  0.00000,  1.00000,  0.00000,  0.00000,  1.00000,  1,  100.0,  200.600,  60.180
2019,  '1',  155.176,  3.564,  46.430,  -31.390,  1.04000,  0,  261.600,  0.00000,  1.00000,  0.00000,  0.00000,  1.00000,  1,  100.0,  218.000,  65.400
2023,  '1',  0.000,  15.439,  42.420,  -9.250,  1.02000,  0,  100.000,  0.00000,  0.29440,  0.00000,  0.00000,  1.00000,  0,  100.0,  83.330,  25.000
2024,  '1',  96.670,  -18.500,  84.830,  -18.500,  1.02000,  0,  200.000,  0.00000,  0.15080,  0.00000,  0.00000,  1.00000,  1,  100.0,  166.670,  50.000
2042,  '1',  43.873,  -11.460,  16.950,  -11.460,  1.01000,  0,  95.520,  0.00000,  1.00000,  0.00000,  0.00000,  1.00000,  1,  100.0,  79.600,  23.880
2056,  '1',  0.000,  0.000,  2.800,  -0.730,  0.99000,  0,  7.200,  0.00000,  0.24920,  0.00000,  0.00000,  1.00000,  0,  100.0,  6.000,  1.800
2057,  '1',  52.389,  -118.490,  335.520,  -87.840,  0.99000,  0,  864.000,  0.00000,  0.17700,  0.00000,  0.00000,  1.00000,  1,  100.0,  720.000,  216.000
2059,  '1',  42.709,  -11.520,  17.040,  -11.520,  1.00000,  0,  96.000,  0.00000,  1.00000,  0.00000,  0.00000,  1.00000,  1,  100.0,  80.000,  24.000
2062,  '1',  85.299,  -15.952,  28.840,  -19.500,  1.02000,  0,  162.480,  0.00000,  1.00000,  0.00000,  0.00000,  1.00000,  1,  100.0,  135.400,  40.620
2071,  '1',  44.305,  -12.555,  31.950,  -21.600,  1.00000,  0,  180.000,  0.00000,  1.00000,  0.00000,  0.00000,  1.00000,  1,  100.0,  150.000,  45.000
2078,  '1',  33.231,  -10.322,  23.960,  -16.200,  1.02000,  0,  135.000,  0.00000,  1.00000,  0.00000,  0.00000,  1.00000,  1,  100.0,  112.500,  33.750
2083,  '1',  0.000,  10.080,  10.180,  -2.220,  1.02000,  0,  24.000,  0.00000,  0.16410,  0.00000,  0.00000,  1.00000,  0,  100.0,  20.000,  6.000
2084,  '1',  0.000,  0.000,  10.180,  -2.220,  1.02000,  0,  24.000,  0.00000,  0.23120,  0.00000,  0.00000,  1.00000,  0,  100.0,  20.000,  6.000
2085,  '1',  0.000,  0.000,  20.360,  -4.440,  1.02000,  0,  48.000,  0.00000,  0.22690,  0.00000,  0.00000,  1.00000,  0,  100.0,  40.000,  12.000
2095,  '1',  48.736,  -11.450,  16.930,  -11.450,  1.00000,  0,  95.400,  0.00000,  1.00000,  0.00000,  0.00000,  1.00000,  1,  100.0,  79.500,  23.850
2100,  '1',  105.835,  -21.600,  31.950,  -21.600,  1.02000,  0,  180.000,  0.00000,  1.00000,  0.00000,  0.00000,  1.00000,  1,  100.0,  150.000,  45.000
2103,  '1',  80.320,  -29.720,  136.280,  -29.720,  1.00000,  0,  321.280,  0.00000,  0.33430,  0.00000,  0.00000,  1.00000,  1,  100.0,  267.730,  80.320
2104,  '1',  80.320,  -29.720,  136.280,  -29.720,  1.00000,  0,  321.280,  0.00000,  0.31470,  0.00000,  0.00000,  1.00000,  1,  100.0,  267.730,  80.320
2105,  '1',  80.320,  -29.720,  136.280,  -29.720,  1.00000,  0,  321.280,  0.00000,  0.14160,  0.00000,  0.00000,  1.00000,  1,  100.0,  267.730,  80.320
2115,  '1',  133.000,  -20.500,  94.020,  -20.500,  1.00000,  0,  221.660,  0.00000,  0.14250,  0.00000,  0.00000,  1.00000,  1,  100.0,  184.720,  55.410
2116,  '1',  133.000,  -20.500,  94.020,  -20.500,  1.00000,  0,  221.660,  0.00000,  0.18690,  0.00000,  0.00000,  1.00000,  1,  100.0,  184.720,  55.410
2117,  '1',  133.000,  -20.500,  94.020,  -20.500,  1.00000,  0,  221.660,  0.00000,  0.32540,  0.00000,  0.00000,  1.00000,  1,  100.0,  184.720,  55.410
2118,  '1',  133.000,  -20.500,  94.020,  -20.500,  1.00000,  0,  221.660,  0.00000,  0.10610,  0.00000,  0.00000,  1.00000,  1,  100.0,  184.720,  55.410
2119,  '1',  133.000,  -20.500,  94.020,  -20.500,  1.00000,  0,  221.660,  0.00000,  0.13600,  0.00000,  0.00000,  1.00000,  1,  100.0,  184.720,  55.410
2120,  '1',  133.000,  -20.500,  94.020,  -20.500,  1.01000,  0,  221.660,  0.00000,  0.20680,  0.00000,  0.00000,  1.00000,  1,  100.0,  184.720,  55.410
2123,  '1',  100.151,  -26.160,  38.700,  -26.160,  1.00000,  0,  218.040,  0.00000,  1.00000,  0.00000,  0.00000,  1.00000,  1,  100.0,  181.700,  54.510
2127,  '1',  90.750,  -41.560,  61.470,  -41.560,  1.04000,  0,  346.320,  0.00000,  1.00000,  0.00000,  0.00000,  1.00000,  1,  100.0,  288.600,  86.580
3017,  '1',  95.779,  -7.407,  36.100,  -24.410,  1.01000,  0,  203.400,  0.00000,  1.00000,  0.00000,  0.00000,  1.00000,  1,  100.0,  169.500,  50.850
3020,  '1',  84.757,  12.252,  31.950,  -21.600,  1.03000,  0,  180.000,  0.00000,  1.00000,  0.00000,  0.00000,  1.00000,  1,  100.0,  150.000,  45.000
3028,  '1',  59.074,  29.648,  42.600,  -28.800,  1.04000,  0,  240.000,  0.00000,  1.00000,  0.00000,  0.00000,  1.00000,  1,  100.0,  200.000,  60.000
3034,  '1',  73.735,  9.223,  27.800,  -18.790,  1.03000,  0,  156.600,  0.00000,  1.00000,  0.00000,  0.00000,  1.00000,  1,  100.0,  130.500,  39.150
3039,  '1',  118.094,  30.154,  44.520,  -30.100,  1.04000,  0,  250.800,  0.00000,  1.00000,  0.00000,  0.00000,  1.00000,  1,  100.0,  209.000,  62.700
3043,  '1',  0.000,  0.000,  0.660,  -0.140,  1.04000,  0,  1.560,  0.00000,  0.27280,  0.00000,  0.00000,  1.00000,  0,  100.0,  1.300,  0.390
3044,  '1',  0.000,  0.000,  45.500,  -9.920,  1.04000,  0,  107.280,  0.00000,  0.17000,  0.00000,  0.00000,  1.00000,  0,  100.0,  89.400,  26.820
3045,  '1',  134.100,  22.028,  227.520,  -49.620,  1.04000,  0,  536.400,  0.00000,  0.14470,  0.00000,  0.00000,  1.00000,  1,  100.0,  447.000,  134.100
3048,  '1',  136.176,  51.330,  51.330,  -34.700,  1.04000,  0,  289.200,  0.00000,  1.00000,  0.00000,  0.00000,  1.00000,  1,  100.0,  241.000,  72.300
3055,  '1',  138.534,  27.900,  52.220,  -35.300,  1.04000,  0,  294.200,  0.00000,  1.00000,  0.00000,  0.00000,  1.00000,  1,  100.0,  245.170,  73.550
3056,  '1',  138.534,  17.499,  52.220,  -35.300,  1.04000,  0,  294.200,  0.00000,  1.00000,  0.00000,  0.00000,  1.00000,  1,  100.0,  245.170,  73.550
3057,  '1',  138.534,  16.359,  52.220,  -35.300,  1.04000,  0,  294.200,  0.00000,  1.00000,  0.00000,  0.00000,  1.00000,  1,  100.0,  245.170,  73.550
3060,  '1',  93.586,  10.260,  35.280,  -23.850,  1.04000,  0,  198.750,  0.00000,  1.00000,  0.00000,  0.00000,  1.00000,  1,  100.0,  165.630,  49.690
3061,  '1',  93.586,  12.015,  35.280,  -23.850,  1.04000,  0,  198.750,  0.00000,  1.00000,  0.00000,  0.00000,  1.00000,  1,  100.0,  165.630,  49.690
3062,  '1',  93.586,  19.271,  35.280,  -23.850,  1.04000,  0,  198.750,  0.00000,  1.00000,  0.00000,  0.00000,  1.00000,  1,  100.0,  165.630,  49.690
3063,  '1',  93.586,  14.047,  35.280,  -23.850,  1.04000,  0,  198.750,  0.00000,  1.00000,  0.00000,  0.00000,  1.00000,  1,  100.0,  165.630,  49.690
3065,  '1',  45.482,  -11.590,  17.150,  -11.590,  1.00000,  0,  96.600,  0.00000,  1.00000,  0.00000,  0.00000,  1.00000,  1,  100.0,  80.500,  24.150
3068,  '1',  84.757,  21.987,  31.950,  -21.600,  1.04000,  0,  180.000,  0.00000,  1.00000,  0.00000,  0.00000,  1.00000,  1,  100.0,  150.000,  45.000
3071,  '1',  96.171,  -24.510,  36.250,  -24.510,  1.00000,  0,  204.240,  0.00000,  1.00000,  0.00000,  0.00000,  1.00000,  1,  100.0,  170.200,  51.060
3074,  '1',  56.391,  20.173,  21.260,  -14.370,  1.00000,  0,  119.760,  0.00000,  1.00000,  0.00000,  0.00000,  1.00000,  1,  100.0,  99.800,  29.940
3081,  '1',  140.696,  20.231,  53.040,  -35.860,  1.04000,  0,  298.800,  0.00000,  1.00000,  0.00000,  0.00000,  1.00000,  1,  100.0,  249.000,  74.700
3084,  '1',  131.369,  -21.065,  49.520,  -33.480,  1.00000,  0,  279.000,  0.00000,  1.00000,  0.00000,  0.00000,  1.00000,  1,  100.0,  232.500,  69.750
3086,  '1',  42.378,  -10.800,  15.970,  -10.800,  1.00000,  0,  90.000,  0.00000,  1.00000,  0.00000,  0.00000,  1.00000,  1,  100.0,  75.000,  22.500
3087,  '1',  56.504,  -10.800,  15.970,  -10.800,  1.00000,  0,  90.000,  0.00000,  1.00000,  0.00000,  0.00000,  1.00000,  1,  100.0,  75.000,  22.500
3092,  '1',  113.009,  15.296,  42.600,  -28.800,  1.04000,  0,  240.000,  0.00000,  1.00000,  0.00000,  0.00000,  1.00000,  1,  100.0,  200.000,  60.000
3095,  '1',  68.144,  9.547,  25.690,  -17.370,  1.04000,  0,  144.720,  0.00000,  1.00000,  0.00000,  0.00000,  1.00000,  1,  100.0,  120.600,  36.180
3098,  '1',  90.407,  10.913,  34.080,  -23.040,  1.04000,  0,  192.000,  0.00000,  1.00000,  0.00000,  0.00000,  1.00000,  1,  100.0,  160.000,  48.000
3106,  '1',  58.570,  -14.152,  62.477,  -2.690,  1.00000,  0,  65.880,  0.00000,  0.29220,  0.00000,  0.00000,  1.00000,  1,  100.0,  162.800,  0.000
3110,  '1',  47.464,  8.163,  17.890,  -12.100,  1.04000,  0,  100.800,  0.00000,  1.00000,  0.00000,  0.00000,  1.00000,  1,  100.0,  84.000,  25.200
3112,  '1',  42.265,  -9.688,  15.930,  -10.770,  1.00000,  0,  89.760,  0.00000,  1.00000,  0.00000,  0.00000,  1.00000,  1,  100.0,  74.800,  22.440
3113,  '1',  42.265,  -9.688,  15.930,  -10.770,  1.00000,  0,  89.760,  0.00000,  1.00000,  0.00000,  0.00000,  1.00000,  1,  100.0,  74.800,  22.440
3117,  '1',  35.598,  -7.980,  13.420,  -9.070,  1.00000,  0,  75.600,  0.00000,  1.00000,  0.00000,  0.00000,  1.00000,  1,  100.0,  63.000,  18.900
3118,  '1',  67.805,  -12.679,  25.560,  -17.280,  1.00000,  0,  144.000,  0.00000,  1.00000,  0.00000,  0.00000,  1.00000,  1,  100.0,  120.000,  36.000
3122,  '1',  111.314,  -17.422,  41.960,  -28.370,  1.00000,  0,  236.400,  0.00000,  1.00000,  0.00000,  0.00000,  1.00000,  1,  100.0,  197.000,  59.100
3127,  '1',  76.281,  -19.440,  28.760,  -19.440,  1.00000,  0,  162.000,  0.00000,  1.00000,  0.00000,  0.00000,  1.00000,  1,  100.0,  135.000,  40.500
3129,  '1',  71.482,  -18.220,  26.940,  -18.220,  1.00000,  0,  151.800,  0.00000,  1.00000,  0.00000,  0.00000,  1.00000,  1,  100.0,  126.500,  37.950
3131,  '1',  64.415,  1.581,  24.280,  -16.420,  1.02000,  0,  136.800,  0.00000,  1.00000,  0.00000,  0.00000,  1.00000,  1,  100.0,  114.000,  34.200
3133,  '1',  0.000,  26.110,  26.110,  -5.690,  1.04000,  0,  61.560,  0.00000,  0.10470,  0.00000,  0.00000,  1.00000,  0,  100.0,  51.300,  15.390
3137,  '1',  57.182,  21.560,  21.560,  -14.570,  1.03000,  0,  121.440,  0.00000,  1.00000,  0.00000,  0.00000,  1.00000,  1,  100.0,  101.200,  30.360
3141,  '1',  51.698,  -13.180,  19.490,  -13.180,  1.00000,  0,  109.800,  0.00000,  1.00000,  0.00000,  0.00000,  1.00000,  1,  100.0,  91.500,  27.450
4010,  '1',  113.913,  14.897,  42.940,  -29.030,  1.03000,  0,  241.920,  0.00000,  1.00000,  0.00000,  0.00000,  1.00000,  1,  100.0,  201.600,  60.480
4026,  '1',  123.000,  39.241,  191.060,  -50.020,  1.03000,  0,  492.000,  0.00000,  0.32770,  0.00000,  0.00000,  1.00000,  1,  100.0,  410.000,  123.000
4030,  '1',  403.426,  81.541,  290.040,  -75.930,  1.01000,  0,  746.880,  0.00000,  0.27970,  0.00000,  0.00000,  1.00000,  1,  100.0,  622.400,  186.720
4047,  '1',  35.997,  11.420,  75.102,  -3.230,  1.02000,  0,  79.200,  0.00000,  0.32270,  0.00000,  0.00000,  1.00000,  1,  100.0,  195.700,  0.000
4050,  '1',  113.009,  -28.800,  42.600,  -28.800,  1.00000,  0,  240.000,  0.00000,  1.00000,  0.00000,  0.00000,  1.00000,  1,  100.0,  200.000,  60.000
4052,  '1',  0.000,  22.500,  22.500,  -4.910,  1.04000,  0,  53.040,  0.00000,  0.28510,  0.00000,  0.00000,  1.00000,  0,  100.0,  44.200,  13.260
4058,  '1',  83.520,  13.549,  73.300,  -15.980,  1.03000,  0,  172.800,  0.00000,  0.13700,  0.00000,  0.00000,  1.00000,  1,  100.0,  144.000,  43.200
4059,  '1',  83.520,  14.328,  73.300,  -15.980,  1.03000,  0,  172.800,  0.00000,  0.15140,  0.00000,  0.00000,  1.00000,  1,  100.0,  144.000,  43.200
4060,  '1',  83.520,  10.070,  73.300,  -15.980,  1.03000,  0,  172.800,  0.00000,  0.13940,  0.00000,  0.00000,  1.00000,  1,  100.0,  144.000,  43.200
4061,  '1',  99.950,  13.920,  87.720,  -19.130,  1.03000,  0,  206.800,  0.00000,  0.21560,  0.00000,  0.00000,  1.00000,  1,  100.0,  172.330,  51.700
4062,  '1',  99.950,  10.417,  87.720,  -19.130,  1.03000,  0,  206.800,  0.00000,  0.25930,  0.00000,  0.00000,  1.00000,  1,  100.0,  172.330,  51.700
4063,  '1',  99.950,  15.004,  87.720,  -19.130,  1.03000,  0,  206.800,  0.00000,  0.14410,  0.00000,  0.00000,  1.00000,  1,  100.0,  172.330,  51.700
4065,  '1',  0.000,  13.408,  23.920,  -5.220,  1.02000,  0,  56.400,  0.00000,  0.15920,  0.00000,  0.00000,  1.00000,  0,  100.0,  47.000,  14.100
4075,  '1',  0.000,  0.000,  89.750,  -19.570,  1.03000,  0,  211.600,  0.00000,  0.11980,  0.00000,  0.00000,  1.00000,  0,  100.0,  176.330,  52.900
4076,  '1',  0.000,  23.562,  89.750,  -19.570,  1.03000,  0,  211.600,  0.00000,  0.13140,  0.00000,  0.00000,  1.00000,  0,  100.0,  176.330,  52.900
4077,  '1',  0.000,  17.974,  89.750,  -19.570,  1.03000,  0,  211.600,  0.00000,  0.23730,  0.00000,  0.00000,  1.00000,  0,  100.0,  176.330,  52.900
4082,  '1',  175.250,  25.577,  123.890,  -27.020,  1.04000,  0,  292.080,  0.00000,  0.13810,  0.00000,  0.00000,  1.00000,  1,  100.0,  243.400,  73.020
4083,  '1',  175.250,  26.952,  123.890,  -27.020,  1.04000,  0,  292.080,  0.00000,  0.15700,  0.00000,  0.00000,  1.00000,  1,  100.0,  243.400,  73.020
4084,  '1',  175.250,  45.840,  123.890,  -27.020,  1.04000,  0,  292.080,  0.00000,  0.19110,  0.00000,  0.00000,  1.00000,  1,  100.0,  243.400,  73.020
4085,  '1',  302.720,  54.122,  179.170,  -39.070,  1.04000,  0,  422.400,  0.00000,  0.31920,  0.00000,  0.00000,  1.00000,  1,  100.0,  352.000,  105.600
4090,  '1',  0.000,  0.000,  0.650,  -0.170,  1.01000,  0,  1.680,  0.00000,  0.23450,  0.00000,  0.00000,  1.00000,  0,  100.0,  1.400,  0.420
4091,  '1',  0.000,  2.447,  10.950,  -2.870,  1.01000,  0,  28.200,  0.00000,  0.13620,  0.00000,  0.00000,  1.00000,  0,  100.0,  23.500,  7.050
4092,  '1',  0.000,  0.000,  3.540,  -0.930,  1.01000,  0,  9.120,  0.00000,  0.10570,  0.00000,  0.00000,  1.00000,  0,  100.0,  7.600,  2.280
4093,  '1',  0.000,  1.299,  13.050,  -3.420,  1.01000,  0,  33.600,  0.00000,  0.12560,  0.00000,  0.00000,  1.00000,  0,  100.0,  28.000,  8.400
4094,  '1',  0.000,  4.863,  13.050,  -3.420,  1.01000,  0,  33.600,  0.00000,  0.35660,  0.00000,  0.00000,  1.00000,  0,  100.0,  28.000,  8.400
4095,  '1',  0.000,  2.145,  13.050,  -3.420,  1.01000,  0,  33.600,  0.00000,  0.24030,  0.00000,  0.00000,  1.00000,  0,  100.0,  28.000,  8.400
4096,  '1',  0.000,  0.000,  13.050,  -3.420,  1.01000,  0,  33.600,  0.00000,  0.23980,  0.00000,  0.00000,  1.00000,  0,  100.0,  28.000,  8.400
4097,  '1',  0.000,  1.867,  13.050,  -3.420,  1.01000,  0,  33.600,  0.00000,  0.22170,  0.00000,  0.00000,  1.00000,  0,  100.0,  28.000,  8.400
4098,  '1',  0.000,  0.000,  13.050,  -3.420,  1.01000,  0,  33.600,  0.00000,  0.24690,  0.00000,  0.00000,  1.00000,  0,  100.0,  28.000,  8.400
4105,  '1',  53.166,  2.288,  38.340,  -25.920,  1.01000,  0,  216.000,  0.00000,  1.00000,  0.00000,  0.00000,  1.00000,  1,  100.0,  180.000,  54.000
4115,  '1',  39.540,  48.587,  67.090,  -14.630,  1.04000,  0,  158.160,  0.00000,  0.11310,  0.00000,  0.00000,  1.00000,  1,  100.0,  131.800,  39.540
4116,  '1',  39.540,  45.792,  67.090,  -14.630,  1.04000,  0,  158.160,  0.00000,  0.15150,  0.00000,  0.00000,  1.00000,  1,  100.0,  131.800,  39.540
4133,  '1',  0.000,  0.000,  17.100,  -3.730,  1.00000,  0,  40.320,  0.00000,  0.22730,  0.00000,  0.00000,  1.00000,  0,  100.0,  33.600,  10.080
4134,  '1',  0.000,  -3.730,  17.100,  -3.730,  1.00000,  0,  40.320,  0.00000,  0.18000,  0.00000,  0.00000,  1.00000,  0,  100.0,  33.600,  10.080
4135,  '1',  0.000,  -3.730,  17.100,  -3.730,  1.00000,  0,  40.320,  0.00000,  0.10840,  0.00000,  0.00000,  1.00000,  0,  100.0,  33.600,  10.080
4136,  '1',  0.000,  -3.730,  17.100,  -3.730,  1.00000,  0,  40.320,  0.00000,  0.18960,  0.00000,  0.00000,  1.00000,  0,  100.0,  33.600,  10.080
4137,  '1',  0.000,  0.000,  34.200,  -7.460,  1.00000,  0,  80.640,  0.00000,  0.27350,  0.00000,  0.00000,  1.00000,  0,  100.0,  67.200,  20.160
4138,  '1',  0.000,  0.000,  33.590,  -7.330,  1.00000,  0,  79.200,  0.00000,  0.16760,  0.00000,  0.00000,  1.00000,  0,  100.0,  66.000,  19.800
4142,  '1',  106.228,  34.157,  40.040,  -27.070,  1.04000,  0,  225.600,  0.00000,  1.00000,  0.00000,  0.00000,  1.00000,  1,  100.0,  188.000,  56.400
4153,  '1',  160.021,  60.320,  60.320,  -40.780,  1.04000,  0,  339.840,  0.00000,  1.00000,  0.00000,  0.00000,  1.00000,  1,  100.0,  283.200,  84.960
4160,  '1',  142.390,  42.909,  100.660,  -21.950,  1.03000,  0,  237.320,  0.00000,  0.18820,  0.00000,  0.00000,  1.00000,  1,  100.0,  197.770,  59.330
4161,  '1',  142.390,  21.458,  100.660,  -21.950,  1.03000,  0,  237.320,  0.00000,  0.12390,  0.00000,  0.00000,  1.00000,  1,  100.0,  197.770,  59.330
4162,  '1',  142.390,  18.623,  100.660,  -21.950,  1.03000,  0,  237.320,  0.00000,  0.17220,  0.00000,  0.00000,  1.00000,  1,  100.0,  197.770,  59.330
4163,  '1',  0.000,  0.000,  4.580,  -1.000,  1.03000,  0,  10.800,  0.00000,  0.23060,  0.00000,  0.00000,  1.00000,  0,  100.0,  9.000,  2.700
4166,  '1',  113.574,  -28.940,  42.810,  -28.940,  1.00000,  0,  241.200,  0.00000,  1.00000,  0.00000,  0.00000,  1.00000,  1,  100.0,  201.000,  60.300
4177,  '1',  84.757,  0.104,  31.950,  -21.600,  1.04000,  0,  180.000,  0.00000,  1.00000,  0.00000,  0.00000,  1.00000,  1,  100.0,  150.000,  45.000
4181,  '1',  59.101,  42.620,  42.620,  -28.810,  1.04000,  0,  240.120,  0.00000,  1.00000,  0.00000,  0.00000,  1.00000,  1,  100.0,  200.100,  60.030
4183,  '1',  114.704,  43.240,  43.240,  -29.230,  1.03000,  0,  243.600,  0.00000,  1.00000,  0.00000,  0.00000,  1.00000,  1,  100.0,  203.000,  60.900
4192,  '1',  973.650,  107.413,  688.320,  -150.120,  1.02000,  0,  1622.76,  0.00000,  0.14340,  0.00000,  0.00000,  1.00000,  1,  100.0,  1352.31,  405.690
4194,  '1',  113.913,  42.940,  42.940,  -29.030,  1.02000,  0,  241.920,  0.00000,  1.00000,  0.00000,  0.00000,  1.00000,  1,  100.0,  201.600,  60.480
4195,  '1',  51.984,  -13.250,  19.600,  -13.250,  1.00000,  0,  110.400,  0.00000,  1.00000,  0.00000,  0.00000,  1.00000,  1,  100.0,  92.000,  27.600
5020,  '1',  35.444,  -17.280,  25.560,  -17.280,  1.00000,  0,  144.000,  0.00000,  1.00000,  0.00000,  0.00000,  1.00000,  1,  100.0,  120.000,  36.000
5023,  '1',  0.000,  0.000,  2.440,  -0.530,  1.04000,  0,  5.760,  0.00000,  0.15290,  0.00000,  0.00000,  1.00000,  0,  100.0,  4.800,  1.440
5035,  '1',  0.000,  0.000,  2.140,  -0.470,  1.02000,  0,  5.040,  0.00000,  0.14180,  0.00000,  0.00000,  1.00000,  0,  100.0,  4.200,  1.260
5036,  '1',  0.000,  3.260,  3.260,  -0.710,  1.02000,  0,  7.680,  0.00000,  0.14370,  0.00000,  0.00000,  1.00000,  0,  100.0,  6.400,  1.920
5037,  '1',  308.470,  -16.219,  157.010,  -34.240,  1.02000,  0,  370.160,  0.00000,  0.29910,  0.00000,  0.00000,  1.00000,  1,  100.0,  308.470,  92.540
5038,  '1',  308.470,  -14.874,  157.010,  -34.240,  1.02000,  0,  370.160,  0.00000,  0.12330,  0.00000,  0.00000,  1.00000,  1,  100.0,  308.470,  92.540
5039,  '1',  308.470,  -34.240,  157.010,  -34.240,  1.02000,  0,  370.160,  0.00000,  0.21470,  0.00000,  0.00000,  1.00000,  1,  100.0,  308.470,  92.540
5040,  '1',  308.470,  -11.608,  157.010,  -34.240,  1.02000,  0,  370.160,  0.00000,  0.19240,  0.00000,  0.00000,  1.00000,  1,  100.0,  308.470,  92.540
5041,  '1',  308.470,  -19.583,  157.010,  -34.240,  1.02000,  0,  370.160,  0.00000,  0.11590,  0.00000,  0.00000,  1.00000,  1,  100.0,  308.470,  92.540
5042,  '1',  308.470,  -13.084,  157.010,  -34.240,  1.02000,  0,  370.160,  0.00000,  0.19130,  0.00000,  0.00000,  1.00000,  1,  100.0,  308.470,  92.540
5051,  '1',  0.000,  43.110,  43.110,  -9.400,  1.02000,  0,  101.640,  0.00000,  0.12480,  0.00000,  0.00000,  1.00000,  0,  100.0,  84.700,  25.410
5057,  '1',  272.950,  -35.230,  161.530,  -35.230,  1.00000,  0,  380.820,  0.00000,  0.19130,  0.00000,  0.00000,  1.00000,  1,  100.0,  317.350,  95.200
5058,  '1',  272.920,  -35.230,  161.530,  -35.230,  1.00000,  0,  380.820,  0.00000,  0.29820,  0.00000,  0.00000,  1.00000,  1,  100.0,  317.350,  95.200
5065,  '1',  0.000,  5.400,  5.400,  -1.180,  1.03000,  0,  12.720,  0.00000,  0.13710,  0.00000,  0.00000,  1.00000,  0,  100.0,  10.600,  3.180
5066,  '1',  0.000,  0.920,  0.920,  -0.200,  1.03000,  0,  2.160,  0.00000,  0.13100,  0.00000,  0.00000,  1.00000,  0,  100.0,  1.800,  0.540
5067,  '1',  438.270,  41.402,  223.080,  -48.650,  1.03000,  0,  525.920,  0.00000,  0.32610,  0.00000,  0.00000,  1.00000,  1,  100.0,  438.270,  131.480
5068,  '1',  438.270,  38.046,  223.080,  -48.650,  1.03000,  0,  525.920,  0.00000,  0.11690,  0.00000,  0.00000,  1.00000,  1,  100.0,  438.270,  131.480
5069,  '1',  438.270,  35.574,  223.080,  -48.650,  1.03000,  0,  525.920,  0.00000,  0.10560,  0.00000,  0.00000,  1.00000,  1,  100.0,  438.270,  131.480
5106,  '1',  0.000,  0.000,  5.030,  -1.320,  1.04000,  0,  12.960,  0.00000,  0.31910,  0.00000,  0.00000,  1.00000,  0,  100.0,  10.800,  3.240
5107,  '1',  0.000,  0.000,  2.660,  -0.700,  1.04000,  0,  6.840,  0.00000,  0.27550,  0.00000,  0.00000,  1.00000,  0,  100.0,  5.700,  1.710
5166,  '1',  73.370,  49.117,  64.390,  -14.040,  1.04000,  0,  151.800,  0.00000,  0.13910,  0.00000,  0.00000,  1.00000,  1,  100.0,  126.500,  37.950
5167,  '1',  0.000,  0.810,  0.810,  -0.180,  1.04000,  0,  1.920,  0.00000,  0.10670,  0.00000,  0.00000,  1.00000,  0,  100.0,  1.600,  0.480
5198,  '1',  44.305,  -21.600,  31.950,  -21.600,  1.00000,  0,  180.000,  0.00000,  1.00000,  0.00000,  0.00000,  1.00000,  1,  100.0,  150.000,  45.000
5206,  '1',  179.040,  -27.600,  126.570,  -27.600,  1.01000,  0,  298.400,  0.00000,  0.11980,  0.00000,  0.00000,  1.00000,  1,  100.0,  248.670,  74.600
5207,  '1',  179.040,  -27.600,  126.570,  -27.600,  1.01000,  0,  298.400,  0.00000,  0.18090,  0.00000,  0.00000,  1.00000,  1,  100.0,  248.670,  74.600
5208,  '1',  179.040,  -27.600,  126.570,  -27.600,  1.01000,  0,  298.400,  0.00000,  0.10560,  0.00000,  0.00000,  1.00000,  1,  100.0,  248.670,  74.600
5238,  '1',  66.458,  -32.400,  47.930,  -32.400,  1.00000,  0,  270.000,  0.00000,  1.00000,  0.00000,  0.00000,  1.00000,  1,  100.0,  225.000,  67.500
5243,  '1',  44.305,  -21.600,  31.950,  -21.600,  1.00000,  0,  180.000,  0.00000,  1.00000,  0.00000,  0.00000,  1.00000,  1,  100.0,  150.000,  45.000
5262,  '1',  1215.000,  -23.041,  447.120,  -99.630,  1.01000,  0,  1458.00,  0.00000,  0.26310,  0.00000,  0.00000,  1.00000,  1,  100.0,  1215.00,  364.500
5263,  '1',  1215.000,  -52.932,  447.120,  -99.630,  1.01000,  0,  1458.00,  0.00000,  0.16260,  0.00000,  0.00000,  1.00000,  1,  100.0,  1215.00,  364.500
5281,  '1',  155.280,  -29.720,  136.280,  -29.720,  1.00000,  0,  321.280,  0.00000,  0.10660,  0.00000,  0.00000,  1.00000,  1,  100.0,  267.730,  80.320
5282,  '1',  155.280,  -29.720,  136.280,  -29.720,  1.00000,  0,  321.280,  0.00000,  0.23940,  0.00000,  0.00000,  1.00000,  1,  100.0,  267.730,  80.320
5283,  '1',  155.280,  -29.720,  136.280,  -29.720,  1.00000,  0,  321.280,  0.00000,  0.10650,  0.00000,  0.00000,  1.00000,  1,  100.0,  267.730,  80.320
5297,  '1',  0.000,  0.000,  1.630,  -0.360,  1.04000,  0,  3.840,  0.00000,  0.19100,  0.00000,  0.00000,  1.00000,  0,  100.0,  3.200,  0.960
5298,  '1',  34.500,  58.530,  58.530,  -12.760,  1.04000,  0,  138.000,  0.00000,  0.13260,  0.00000,  0.00000,  1.00000,  1,  100.0,  115.000,  34.500
5299,  '1',  34.500,  49.306,  58.530,  -12.760,  1.04000,  0,  138.000,  0.00000,  0.32280,  0.00000,  0.00000,  1.00000,  1,  100.0,  115.000,  34.500
5300,  '1',  34.500,  58.530,  58.530,  -12.760,  1.04000,  0,  138.000,  0.00000,  0.21910,  0.00000,  0.00000,  1.00000,  1,  100.0,  115.000,  34.500
5301,  '1',  0.000,  42.090,  42.090,  -9.180,  1.04000,  0,  99.240,  0.00000,  0.19640,  0.00000,  0.00000,  1.00000,  0,  100.0,  82.700,  24.810
5302,  '1',  333.900,  66.163,  236.050,  -51.480,  1.04000,  0,  556.500,  0.00000,  0.13300,  0.00000,  0.00000,  1.00000,  1,  100.0,  463.750,  139.130
5303,  '1',  333.900,  86.575,  236.050,  -51.480,  1.04000,  0,  556.500,  0.00000,  0.17920,  0.00000,  0.00000,  1.00000,  1,  100.0,  463.750,  139.130
5319,  '1',  152.420,  -15.045,  133.770,  -29.170,  1.01000,  0,  315.360,  0.00000,  0.25070,  0.00000,  0.00000,  1.00000,  1,  100.0,  262.800,  78.840
5320,  '1',  152.420,  -14.781,  133.770,  -29.170,  1.01000,  0,  315.360,  0.00000,  0.28140,  0.00000,  0.00000,  1.00000,  1,  100.0,  262.800,  78.840
5321,  '1',  152.420,  -16.085,  133.770,  -29.170,  1.01000,  0,  315.360,  0.00000,  0.12810,  0.00000,  0.00000,  1.00000,  1,  100.0,  262.800,  78.840
...
 0 /End of Generator data, Begin Branch data
1001,  1064,  '1',  0.00524,  0.03580,  0.00609,  221.00,  0.00,  0.00,  0.00000,  0.000,  0.00000,  0.00000,  0.00000,  0.00000,  1
1001,  1064,  '2',  0.00524,  0.03580,  0.00609,  221.00,  0.00,  0.00,  0.00000,  0.000,  0.00000,  0.00000,  0.00000,  0.00000,  1
1001,  1071,  '1',  0.00435,  0.02808,  0.00536,  221.00,  0.00,  0.00,  0.00000,  0.000,  0.00000,  0.00000,  0.00000,  0.00000,  1
1001,  1071,  '2',  0.00435,  0.02808,  0.00536,  221.00,  0.00,  0.00,  0.00000,  0.000,  0.00000,  0.00000,  0.00000,  0.00000,  1
1001,  11001,  '1',  0.00000,  0.04638,  0.00000,  25.87,  0.00,  0.00,  1.00000,  -1.160,  0.00000,  0.00000,  0.00000,  0.00000,  1
1002,  1007,  '1',  0.07776,  0.46693,  0.06336,  98.00,  0.00,  0.00,  0.00000,  0.000,  0.00000,  0.00000,  0.00000,  0.00000,  1
1002,  -1010,  '1',  0.05552,  0.13570,  0.01777,  98.00,  0.00,  0.00,  0.00000,  0.000,  0.00000,  0.00000,  0.00000,  0.00000,  1
1002,  11002,  '1',  0.00000,  0.08726,  0.00000,  13.75,  0.00,  0.00,  1.00000,  -0.990,  0.00000,  0.00000,  0.00000,  0.00000,  1
1004,  1003,  '1',  0.00450,  0.11582,  0.00000,  250.00,  0.00,  0.00,  1.00000,  0.000,  0.00000,  0.00000,  0.00000,  0.00000,  1
1003,  -1022,  '1',  0.00485,  0.02012,  0.00341,  221.00,  0.00,  0.00,  0.00000,  0.000,  0.00000,  0.00000,  0.00000,  0.00000,  1
1003,  -1055,  '1',  0.01574,  0.03782,  0.00513,  98.00,  0.00,  0.00,  0.00000,  0.000,  0.00000,  0.00000,  0.00000,  0.00000,  1
1004,  3133,  '1',  0.00420,  0.03000,  0.05500,  523.00,  0.00,  0.00,  0.00000,  0.000,  0.00000,  0.00000,  0.00000,  0.00000,  1
1006,  1005,  '1',  0.01300,  0.13000,  0.00000,  42.00,  0.00,  0.00,  1.00000,  0.000,  0.00000,  0.00000,  0.00000,  0.00000,  1
1005,  -1025,  '1',  0.01842,  0.08210,  0.01204,  149.00,  0.00,  0.00,  0.00000,  0.000,  0.00000,  0.00000,  0.00000,  0.00000,  1
1005,  1061,  '1',  0.00599,  0.02484,  0.00422,  221.00,  0.00,  0.00,  0.00000,  0.000,  0.00000,  0.00000,  0.00000,  0.00000,  1
1005,  -1067,  '1',  0.01711,  0.04181,  0.00548,  98.00,  0.00,  0.00,  0.00000,  0.000,  0.00000,  0.00000,  0.00000,  0.00000,  1
1007,  1015,  '1',  0.06224,  0.37375,  0.05072,  98.00,  0.00,  0.00,  0.00000,  0.000,  0.00000,  0.00000,  0.00000,  0.00000,  1
1007,  -1031,  '1',  0.04803,  0.27434,  0.04123,  98.00,  0.00,  0.00,  0.00000,  0.000,  0.00000,  0.00000,  0.00000,  0.00000,  1
1007,  11007,  '1',  0.00000,  0.21651,  0.00000,  5.54,  0.00,  0.00,  1.00000,  -0.976,  0.00000,  0.00000,  0.00000,  0.00000,  1
1009,  1008,  '1',  0.00455,  0.09471,  0.00000,  120.00,  0.00,  0.00,  1.00000,  0.000,  0.00000,  0.00000,  0.00000,  0.00000,  1
1008,  1032,  '1',  0.04501,  0.11002,  0.01441,  98.00,  0.00,  0.00,  0.00000,  0.000,  0.00000,  0.00000,  0.00000,  0.00000,  1
1008,  1069,  '1',  0.00830,  0.03628,  0.00553,  149.00,  0.00,  0.00,  0.00000,  0.000,  0.00000,  0.00000,  0.00000,  0.00000,  1
1011,  1010,  '1',  0.01300,  0.13000,  0.00000,  46.00,  0.00,  0.00,  1.00000,  0.000,  0.00000,  0.00000,  0.00000,  0.00000,  1
1010,  1015,  '1',  0.04703,  0.28243,  0.03833,  98.00,  0.00,  0.00,  0.00000,  0.000,  0.00000,  0.00000,  0.00000,  0.00000,  1
1010,  1030,  '1',  0.06160,  0.36990,  0.05020,  98.00,  0.00,  0.00,  0.00000,  0.000,  0.00000,  0.00000,  0.00000,  0.00000,  1
1012,  1087,  '1',  0.04934,  0.20469,  0.03473,  149.00,  0.00,  0.00,  0.00000,  0.000,  0.00000,  0.00000,  0.00000,  0.00000,  1
1012,  -3051,  '1',  0.05710,  0.24977,  0.03804,  149.00,  0.00,  0.00,  0.00000,  0.000,  0.00000,  0.00000,  0.00000,  0.00000,  1
1012,  11012,  '1',  0.00000,  0.38414,  0.00000,  3.12,  0.00,  0.00,  1.00000,  -1.223,  0.00000,  0.00000,  0.00000,  0.00000,  1
1013,  1031,  '1',  0.04509,  0.27078,  0.03675,  98.00,  0.00,  0.00,  0.00000,  0.000,  0.00000,  0.00000,  0.00000,  0.00000,  1
1013,  -1047,  '1',  0.00947,  0.06117,  0.01167,  221.00,  0.00,  0.00,  0.00000,  0.000,  0.00000,  0.00000,  0.00000,  0.00000,  1
1013,  -1086,  '1',  0.07900,  0.19311,  0.02529,  98.00,  0.00,  0.00,  0.00000,  0.000,  0.00000,  0.00000,  0.00000,  0.00000,  1
1013,  11013,  '1',  0.00000,  0.03324,  0.00000,  36.10,  0.00,  0.00,  1.00000,  -0.892,  0.00000,  0.00000,  0.00000,  0.00000,  1
1014,  1047,  '1',  0.03566,  0.14794,  0.02510,  149.00,  0.00,  0.00,  0.00000,  0.000,  0.00000,  0.00000,  0.00000,  0.00000,  1
1014,  1083,  '1',  0.04105,  0.18293,  0.02682,  149.00,  0.00,  0.00,  0.00000,  0.000,  0.00000,  0.00000,  0.00000,  0.00000,  1
1014,  11014,  '1',  0.00000,  0.43212,  0.00000,  2.78,  0.00,  0.00,  1.00000,  -0.873,  0.00000,  0.00000,  0.00000,  0.00000,  1
1015,  11015,  '1',  0.00000,  0.17906,  0.00000,  6.70,  0.00,  0.00,  1.00000,  -0.987,  0.00000,  0.00000,  0.00000,  0.00000,  1
1016,  1034,  '1',  0.01828,  0.10976,  0.01489,  98.00,  0.00,  0.00,  0.00000,  0.000,  0.00000,  0.00000,  0.00000,  0.00000,  1
1016,  -1068,  '1',  0.02773,  0.15837,  0.02380,  98.00,  0.00,  0.00,  0.00000,  0.000,  0.00000,  0.00000,  0.00000,  0.00000,  1
1016,  11016,  '1',  0.00000,  0.34941,  0.00000,  3.43,  0.00,  0.00,  1.00000,  -0.932,  0.00000,  0.00000,  0.00000,  0.00000,  1
1017,  -1018,  '1',  0.03227,  0.07887,  0.01033,  98.00,  0.00,  0.00,  0.00000,  0.000,  0.00000,  0.00000,  0.00000,  0.00000,  1
1017,  1029,  '1',  0.03244,  0.14188,  0.02161,  149.00,  0.00,  0.00,  0.00000,  0.000,  0.00000,  0.00000,  0.00000,  0.00000,  1
1017,  -1037,  '1',  0.00752,  0.03352,  0.00491,  221.00,  0.00,  0.00,  0.00000,  0.000,  0.00000,  0.00000,  0.00000,  0.00000,  1
1017,  -1047,  '1',  0.03600,  0.15600,  0.02400,  150.00,  0.00,  0.00,  0.00000,  0.000,  0.00000,  0.00000,  0.00000,  0.00000,  1
1017,  11017,  '1',  0.00000,  0.05387,  0.00000,  22.28,  0.00,  0.00,  1.00000,  -1.087,  0.00000,  0.00000,  0.00000,  0.00000,  1
1018,  -1024,  '1',  0.01094,  0.06572,  0.00892,  98.00,  0.00,  0.00,  0.00000,  0.000,  0.00000,  0.00000,  0.00000,  0.00000,  1
1018,  11018,  '1',  0.00000,  16.00453,  0.00000,  0.07,  0.00,  0.00,  1.00000,  -1.084,  0.00000,  0.00000,  0.00000,  0.00000,  1
1019,  1040,  '1',  0.04978,  0.20651,  0.03504,  149.00,  0.00,  0.00,  0.00000,  0.000,  0.00000,  0.00000,  0.00000,  0.00000,  1
1019,  1045,  '1',  0.01522,  0.03720,  0.00487,  221.00,  0.00,  0.00,  0.00000,  0.000,  0.00000,  0.00000,  0.00000,  0.00000,  1
1019,  1071,  '1',  0.00440,  0.02800,  0.00540,  225.00,  0.00,  0.00,  0.00000,  0.000,  0.00000,  0.00000,  0.00000,  0.00000,  1
1019,  -1071,  '2',  0.00440,  0.02800,  0.00540,  225.00,  0.00,  0.00,  0.00000,  0.000,  0.00000,  0.00000,  0.00000,  0.00000,  1
1019,  1084,  '1',  0.03000,  0.16000,  0.02500,  220.00,  0.00,  0.00,  0.00000,  0.000,  0.00000,  0.00000,  0.00000,  0.00000,  1
1019,  11019,  '1',  0.00000,  0.01640,  0.00000,  73.17,  0.00,  0.00,  1.00000,  -1.152,  0.00000,  0.00000,  0.00000,  0.00000,  1
1021,  1020,  '1',  0.00327,  0.07812,  0.00000,  250.00,  0.00,  0.00,  1.00000,  0.000,  0.00000,  0.00000,  0.00000,  0.00000,  1
1020,  -1025,  '1',  0.00828,  0.03434,  0.00583,  149.00,  0.00,  0.00,  0.00000,  0.000,  0.00000,  0.00000,  0.00000,  0.00000,  1
1020,  -1084,  '1',  0.01056,  0.06337,  0.00860,  221.00,  0.00,  0.00,  0.00000,  0.000,  0.00000,  0.00000,  0.00000,  0.00000,  1
1020,  3059,  '1',  0.01890,  0.06000,  0.00600,  300.00,  0.00,  0.00,  0.00000,  0.000,  0.00000,  0.00000,  0.00000,  0.00000,  1
1020,  3130,  '1',  0.00996,  0.06938,  0.01134,  221.00,  0.00,  0.00,  0.00000,  0.000,  0.00000,  0.00000,  0.00000,  0.00000,  1
1023,  1022,  '1',  0.00535,  0.11733,  0.00000,  250.00,  0.00,  0.00,  1.00000,  0.000,  0.00000,  0.00000,  0.00000,  0.00000,  1
1022,  1028,  '1',  0.01433,  0.09253,  0.01765,  221.00,  0.00,  0.00,  0.00000,  0.000,  0.00000,  0.00000,  0.00000,  0.00000,  1
1022,  1028,  '2',  0.01433,  0.09253,  0.01765,  221.00,  0.00,  0.00,  0.00000,  0.000,  0.00000,  0.00000,  0.00000,  0.00000,  1
1024,  1090,  '1',  0.01414,  0.06303,  0.00924,  149.00,  0.00,  0.00,  0.00000,  0.000,  0.00000,  0.00000,  0.00000,  0.00000,  1
1024,  11024,  '1',  0.00000,  0.01612,  0.00000,  74.43,  0.00,  0.00,  1.00000,  -1.081,  0.00000,  0.00000,  0.00000,  0.00000,  1
1026,  1025,  '1',  0.01300,  0.13000,  0.00000,  200.00,  0.00,  0.00,  1.00000,  0.000,  0.00000,  0.00000,  0.00000,  0.00000,  1
1027,  1045,  '1',  0.02505,  0.10957,  0.01669,  221.00,  0.00,  0.00,  0.00000,  0.000,  0.00000,  0.00000,  0.00000,  0.00000,  1
1027,  -1056,  '1',  0.03121,  0.07630,  0.00999,  250.00,  0.00,  0.00,  0.00000,  0.000,  0.00000,  0.00000,  0.00000,  0.00000,  1
1027,  11027,  '1',  0.00000,  0.01071,  0.00000,  112.08,  0.00,  0.00,  1.00000,  -1.130,  0.00000,  0.00000,  0.00000,  0.00000,  1
1028,  3109,  '1',  0.00428,  0.01875,  0.00286,  250.00,  0.00,  0.00,  0.00000,  0.000,  0.00000,  0.00000,  0.00000,  0.00000,  1
1028,  11028,  '1',  0.00000,  0.13286,  0.00000,  9.03,  0.00,  0.00,  1.00000,  -1.083,  0.00000,  0.00000,  0.00000,  0.00000,  1
1029,  1056,  '1',  0.02054,  0.11733,  0.01763,  221.00,  0.00,  0.00,  0.00000,  0.000,  0.00000,  0.00000,  0.00000,  0.00000,  1
1029,  11029,  '1',  0.00000,  0.01168,  0.00000,  102.78,  0.00,  0.00,  1.00000,  -1.105,  0.00000,  0.00000,  0.00000,  0.00000,  1
1030,  1038,  '1',  0.07404,  0.42285,  0.06354,  98.00,  0.00,  0.00,  0.00000,  0.000,  0.00000,  0.00000,  0.00000,  0.00000,  1
1030,  -1083,  '1',  0.06537,  0.37334,  0.05610,  98.00,  0.00,  0.00,  0.00000,  0.000,  0.00000,  0.00000,  0.00000,  0.00000,  1
1030,  11030,  '1',  0.00000,  0.05612,  0.00000,  21.38,  0.00,  0.00,  1.00000,  -0.945,  0.00000,  0.00000,  0.00000,  0.00000,  1
1031,  11031,  '1',  0.00000,  0.12549,  0.00000,  9.56,  0.00,  0.00,  1.00000,  -0.945,  0.00000,  0.00000,  0.00000,  0.00000,  1
1033,  1032,  '1',  0.00283,  0.06758,  0.00000,  170.00,  0.00,  0.00,  1.00000,  0.000,  0.00000,  0.00000,  0.00000,  0.00000,  1
1032,  1036,  '1',  0.01956,  0.11746,  0.01594,  98.00,  0.00,  0.00,  0.00000,  0.000,  0.00000,  0.00000,  0.00000,  0.00000,  1
1032,  -1038,  '1',  0.04500,  0.11000,  0.01500,  155.00,  0.00,  0.00,  0.00000,  0.000,  0.00000,  0.00000,  0.00000,  0.00000,  1
1033,  1081,  '1',  0.00300,  0.03100,  0.05900,  548.00,  0.00,  0.00,  0.00000,  0.000,  0.00000,  0.00000,  0.00000,  0.00000,  1
1033,  3050,  '1',  0.01390,  0.13600,  0.26200,  647.00,  0.00,  0.00,  0.00000,  0.000,  0.00000,  0.00000,  0.00000,  0.00000,  1
1035,  1034,  '1',  0.00438,  0.08496,  0.00000,  130.00,  0.00,  0.00,  1.00000,  0.000,  0.00000,  0.00000,  0.00000,  0.00000,  1
...